 CRYSTAL
 PRIMVEC
    3.7418317800    0.0000000000    0.0000000000
    0.0000000000    3.2404337300    0.0000000000
    0.0000000000    0.0000000000    4.5826988000
 PRIMCOORD
 12 1
 28     0.00000    0.00000    0.00000
 28     1.87091    0.00000    0.00000
 28     0.93545    1.62021    0.00000
 28     2.80636    1.62021    0.00000
 28     0.93545    0.54005    1.52741
 28     2.80636    0.54005    1.52741
 28     0.00000    2.16026    1.52741
 28     1.87091    2.16026    1.52741
 28     0.00000    1.08013    3.05481
 28     1.87091    1.08013    3.05481
 28     0.93545    2.70034    3.05481
 28     2.80636    2.70034    3.05481
